Version 4
SHEET 1 27848 15192
WIRE 25392 14592 25376 14592
WIRE 25488 14592 25456 14592
WIRE 25584 14592 25568 14592
WIRE 25776 14688 25664 14688
WIRE 25376 14704 25376 14592
WIRE 25392 14704 25376 14704
WIRE 25488 14704 25456 14704
WIRE 25584 14704 25568 14704
WIRE 25664 14704 25664 14688
WIRE 25776 14704 25776 14688
WIRE 25664 14800 25664 14784
WIRE 25776 14800 25776 14784
WIRE 25776 14800 25664 14800
WIRE 25376 14816 25376 14704
WIRE 25392 14816 25376 14816
WIRE 25488 14816 25456 14816
WIRE 25584 14816 25568 14816
WIRE 25664 14816 25664 14800
WIRE 25376 14832 25376 14816
WIRE 25376 14944 25376 14912
FLAG 25376 14944 0
FLAG 25584 14784 0
FLAG 25584 14672 0
FLAG 25584 14896 0
FLAG 25664 14816 0
SYMBOL cap 25456 14576 R90
WINDOW 0 0 32 VBottom 2
WINDOW 3 33 95 VTop 1
SYMATTR InstName C1
SYMATTR Value {phi1/(2*pi*f1)**2}
SYMBOL cap 25456 14688 R90
WINDOW 0 0 32 VBottom 2
WINDOW 3 32 95 VTop 1
SYMATTR InstName C2
SYMATTR Value {phi2/(2*pi*f2)**2}
SYMBOL ind 25472 14608 R270
WINDOW 0 32 56 VTop 2
WINDOW 3 -1 17 VBottom 1
SYMATTR InstName L1
SYMATTR Value {1/phi1}
SYMBOL ind 25472 14720 R270
WINDOW 0 32 56 VTop 2
WINDOW 3 -1 17 VBottom 1
SYMATTR InstName L2
SYMATTR Value {1/phi2}
SYMBOL voltage 25376 14816 M0
WINDOW 3 24 96 Left 1
SYMATTR Value AC 1
SYMATTR InstName V1
SYMBOL cap 25456 14800 R90
WINDOW 0 0 32 VBottom 2
WINDOW 3 33 96 VTop 1
SYMATTR InstName C3
SYMATTR Value {phi3/(2*pi*f3)**2}
SYMBOL ind 25472 14832 R270
WINDOW 0 32 56 VTop 2
WINDOW 3 0 17 VBottom 1
SYMATTR InstName L3
SYMATTR Value {1/phi3}
SYMBOL ind2 25568 14912 M180
WINDOW 0 0 67 Right 2
WINDOW 3 0 44 Right 1
SYMATTR InstName L4
SYMATTR Value {psi3**2}
SYMATTR Type ind
SYMBOL ind2 25568 14688 R0
WINDOW 0 1 44 Right 2
WINDOW 3 0 68 Right 1
SYMATTR InstName L5
SYMATTR Value {psi2**2}
SYMATTR Type ind
SYMBOL ind2 25568 14688 M180
WINDOW 0 -1 67 Right 2
WINDOW 3 -2 42 Right 1
SYMATTR InstName L6
SYMATTR Value {psi1**2}
SYMATTR Type ind
SYMBOL ind2 25680 14800 R180
WINDOW 0 2 68 Right 2
WINDOW 3 1 43 Right 1
SYMATTR InstName L7
SYMATTR Value {1/s**2}
SYMATTR Type ind
SYMBOL voltage 25776 14688 R0
SYMATTR InstName V2
SYMATTR Value 0
TEXT 25376 14976 Left 2 !.ac dec 1000 100 10000
TEXT 25368 14440 Left 2 !.param f1=347.8491105695766 f2=4002.8759129004957 f3=9118.609276012086\n.param phi1=37.47048679642662 phi2=2.4855617498927827 phi3=1.8325667984395029\n.param s=0.0036417751495247705\n.param psi1=0.49105789017885293 psi2=4.641306076294213 psi3=0.008159872921131028
TEXT 25648 14848 Left 1 !K1 L7 L4 L5 L6 1
LINE Normal 25616 14896 25616 14592
LINE Normal 25632 14896 25632 14592
